LAMMPS (7 Feb 2024 - Development - patch_2Jun2022-7271-g417598498c)
# NVT run

variable Tseed    equal  12280329
#variable Tseed    equal  92353424
#variable Tseed    equal  13234532
#variable Tseed    equal  98639823
#variable Tseed    equal  45582371

units          metal
boundary       p p p
atom_style     atomic

read_data      ../../files/HfO2_108atom_DATA
Reading data file ...
  orthogonal box = (0 0 0) to (10.956 10.956 10.628996)
  reading atoms ...
  108 atoms

neighbor       0.5 bin
neigh_modify   every 1 delay 0 check yes

pair_style     pod
pair_coeff     * * ../../files/sample_6body_hfo2_param.pod ../../files/sample_6body_2elem_coeffs.pod "" "" Hf O
**************** Begin of POD Potentials ****************
species: Hf O
periodic boundary conditions: 1 1 1
number of enviroment clusters: 1
number of principal compoments: 1
inner cut-off radius: 1
outer cut-off radius: 5.5
bessel polynomial degree: 4
inverse polynomial degree: 8
one-body potential: 1
two-body radial basis functions: 8
three-body radial basis functions: 6
three-body angular degree: 4
four-body radial basis functions: 4
four-body angular degree: 2
five-body radial basis functions: 4
five-body angular degree: 2
six-body radial basis functions: 3
six-body angular degree: 2
seven-body radial basis functions: 0
seven-body angular degree: 0
number of local descriptors per element for one-body potential: 1
number of local descriptors per element for two-body potential: 16
number of local descriptors per element for three-body potential: 90
number of local descriptors per element for four-body potential: 64
number of local descriptors per element for five-body potential: 192
number of local descriptors per element for six-body potential: 198
number of local descriptors per element for seven-body potential: 0
number of local descriptors per element for all potentials: 561
number of global descriptors: 1122
**************** End of POD Potentials ****************

**************** Begin of POD Coefficients ****************
total number of coefficients for POD potential: 1122
**************** End of POD Potentials ****************

variable T        equal  500
variable Tdamp    equal  0.1
#variable dumpf    equal  50

velocity     all create 500 12280329 mom yes rot yes dist gaussian

thermo       100
thermo_style custom step temp pe ke etotal press

#dump_modify    run_dump sort id format line "%s %21.16f %21.16f %21.16f"

#dump_modify    run_forces sort id format line "%4d %1d %21.16f %21.16f %21.16f %21.16f %21.16f %21.16f"

fix          nvt all nvt temp 500 500 0.1
run 3000
Step          Temp          PotEng         KinEng         TotEng         Press
0   500           -968.01864      6.9154178     -961.10323     -3062.6221
Averages over the last 16 of 31 rows, steps 1500 to 3000:
Temp PotEng KinEng TotEng Press
514.67 -991.659 7.11831 -984.54 -39154
Loop time of 67.258 on 1 procs for 3000 steps with 108 atoms
