LAMMPS (27 Jun 2024)
# necessary preliminaries
units metal
atom_style charge
dimension 3
boundary p p p

read_data Orthog_Hf_15_9_9_singleOint_DATA
Reading data file ...
  orthogonal box = (0 0 0) to (47.496082 49.359376 46.322428)
  reading atoms ...
  4861 atoms

# neighbor parameters
neighbor 2.0 bin
neigh_modify every 1 delay 0 check no

# interatomic potential parameters
pair_style comb
pair_coeff * * ffield.comb Hf O
Reading comb potential file ffield.comb with DATE: 2011-02-22

#set up some qeq diagnostics
group type1 type 1
4860 atoms in group type1
compute charge1 type1 property/atom q
compute q1 type1 reduce ave c_charge1

group type2 type 2
1 atoms in group type2
compute charge2 type2 property/atom q
compute q2 type2 reduce ave c_charge2

thermo 1
thermo_style custom step temp etotal pe evdwl ecoul press vol c_q1 c_q2

# charge qeq minimization
#fix 1 all nvt temp 300.0 300.0 0.1
#run 1
fix 2 all qeq/comb 1 0.003
run 5

CITE-CITE-CITE-CITE-CITE-CITE-CITE-CITE-CITE-CITE-CITE-CITE-CITE

Your simulation uses code contributions which should be cited:

- Type Label Framework: https://doi.org/10.1021/acs.jpcb.3c08419

@Article{Gissinger24,
 author = {Jacob R. Gissinger, Ilia Nikiforov, Yaser Afshar, Brendon Waters, Moon-ki Choi, Daniel S. Karls, Alexander Stukowski, Wonpil Im, Hendrik Heinz, Axel Kohlmeyer, and Ellad B. Tadmor},
 title = {Type Label Framework for Bonded Force Fields in LAMMPS},
 journal = {J. Phys. Chem. B},
 year =    2024,
 volume =  128,
 number =  13,
 pages =   {3282â€“-3297}
}

CITE-CITE-CITE-CITE-CITE-CITE-CITE-CITE-CITE-CITE-CITE-CITE-CITE

Step          Temp          TotEng         PotEng         E_vdwl         E_coul         Press          Volume          c_q1           c_q2
0   0             -33895.512     -33895.512     -33895.512      0              899.31351      108597.23      0.00029391429 -1.4284235
Loop time of 0.245571 on 4 procs for 5 steps with 4861 atoms

#unfix 1

# run an NVT so that we can jostle our interstitial into a more sensible spot before minimizing
velocity all create 1000.0 4928459 rot yes mom yes dist gaussian
fix 1 all nvt temp 1000.0 100.0 0.1
thermo 100
run 2000
Step          Temp          TotEng         PotEng         E_vdwl         E_coul         Press          Volume          c_q1           c_q2
5   1000          -33272.535     -33900.739     -33893.018     -7.7209407      7115.7403      108597.23      0.00029391429 -1.4284235
Averages over the last 11 of 22 rows, steps 1100 to 2005:
Temp TotEng PotEng E_vdwl E_coul Press Volume c_q1 c_q2
364.496 -33509.2 -33738.1 -33730.5 -7.66683 7746.78 108597 0.000313911 -1.52561
Loop time of 206.52 on 4 procs for 2000 steps with 4861 atoms

dump inter all custom 1 intermediate_Hf_supercell_Oint_nonvt.lammpstrj id type q x y z
dump_modify inter sort id format float %20.15g
run 0
Step          Temp          TotEng         PotEng         E_vdwl         E_coul         Press          Volume          c_q1           c_q2
2005   205.02704     -33706.84      -33835.639     -33828.041     -7.5978146      4177.1607      108597.23      0.00031569882 -1.5342963
Loop time of 1.5e-06 on 4 procs for 0 steps with 4861 atoms

undump inter

# full atom minimization
thermo 1
#min_modify dmax 0.005 line quadratic
min_style sd
minimize 1.0e-12 1.0e-18 10000 100000
Step          Temp          TotEng         PotEng         E_vdwl         E_coul         Press          Volume          c_q1           c_q2
2005   205.02704     -33706.84      -33835.639     -33828.041     -7.5978146      4177.1607      108597.23      0.00031569882 -1.5342963
Loop time of 21.8642 on 4 procs for 118 steps with 4861 atoms

Minimization stats:
  Stopping criterion = linesearch alpha is zero
  Energy initial, next-to-last, final =
  Force two-norm initial, final = 46.657864 0.024626463
  Force max component initial, final = 1.5985677 0.0028838333
  Final line search alpha, max atom move = 1.5258789e-05 4.4003805e-08
  Iterations, force evaluations = 118 323

# output the final relaxed structure
#dump final all custom 1 relaxed_Hf_supercell_Oint.lammpstrj id type q x y z
dump final all custom 1 relaxed_Hf_supercell_Oint_nonvt.lammpstrj id type q x y z
dump_modify final sort id format float %20.15g
run 0
Step          Temp          TotEng         PotEng         E_vdwl         E_coul         Press          Volume          c_q1           c_q2
2123   205.02704     -33819.713     -33948.512     -33941.011     -7.5004959      1043.777       108597.23      0.00031386137 -1.5253663
Loop time of 1.33325e-06 on 4 procs for 0 steps with 4861 atoms
