LAMMPS (27 Jun 2024)
# user-set variables
variable TEMP equal 300

# necessary preliminaries
units metal
atom_style atomic
dimension 3
boundary p p p

read_data orthog_Hf_7_4_4_Hfint_alt_DATA
Reading data file ...
  orthogonal box = (0 0 0) to (22.422218 22.19224 20.321894)
  reading atoms ...
  448 atoms

# neighbor parameters
neighbor 2.0 bin
neigh_modify every 1 delay 0 check no

# interatomic potential parameters
pair_style     pod
pair_coeff * * Hf_param.pod Hf_coefficients.pod Hf
**************** Begin of POD Potentials ****************
species: Hf
periodic boundary conditions: 1 1 1
number of environment clusters: 8
number of principal compoments: 2
inner cut-off radius: 1
outer cut-off radius: 5
cut-off function type: 1
gaussian_exponents:
polynomial_degrees:
bessel polynomial degree: 4
inverse polynomial degree: 10
one-body potential: 1
two-body radial basis functions: 8
three-body radial basis functions: 8
three-body angular degree: 6
four-body radial basis functions: 7
four-body angular degree: 5
five-body radial basis functions: 0
five-body angular degree: 0
six-body radial basis functions: 0
six-body angular degree: 0
seven-body radial basis functions: 0
seven-body angular degree: 0
number of local descriptors per element for one-body potential: 1
number of local descriptors per element for two-body potential: 8
number of local descriptors per element for three-body potential: 56
number of local descriptors per element for four-body potential: 112
number of local descriptors per element for five-body potential: 0
number of local descriptors per element for six-body potential: 0
number of local descriptors per element for seven-body potential: 0
number of local descriptors per element for all potentials: 177
number of global descriptors: 1409
**************** End of POD Potentials ****************

**************** Begin of Model Coefficients ****************
total number of coefficients for POD potential: 1409
total number of elements for PCA projection matrix: 352
total number of elements for PCA centroids: 16
**************** End of Model Coefficients ****************

thermo 100
thermo_style custom step temp etotal pe ke press vol

# dump output
dump 1 all custom 100 300K_nvt.lammpstrj id type x y z
dump_modify 1 sort id

dump dforces all custom 250 dump_forces.custom id element x y z fx fy fz
dump_modify dforces sort id element Hf format line "%3d %2s %13.8f %13.8f %13.8f %13.8f %13.8f %13.8f"

velocity all create 300 9928459 rot yes mom yes dist gaussian
fix 1 all nvt temp 300 300 0.1

# run
run 100000

CITE-CITE-CITE-CITE-CITE-CITE-CITE-CITE-CITE-CITE-CITE-CITE-CITE

Your simulation uses code contributions which should be cited:

- Type Label Framework: https://doi.org/10.1021/acs.jpcb.3c08419

@Article{Gissinger24,
 author = {Jacob R. Gissinger, Ilia Nikiforov, Yaser Afshar, Brendon Waters, Moon-ki Choi, Daniel S. Karls, Alexander Stukowski, Wonpil Im, Hendrik Heinz, Axel Kohlmeyer, and Ellad B. Tadmor},
 title = {Type Label Framework for Bonded Force Fields in LAMMPS},
 journal = {J. Phys. Chem. B},
 year =    2024,
 volume =  128,
 number =  13,
 pages =   {3282â€“-3297}
}

CITE-CITE-CITE-CITE-CITE-CITE-CITE-CITE-CITE-CITE-CITE-CITE-CITE

Step          Temp          TotEng         PotEng         KinEng         Press          Volume
0   300           -3231.7429     -3249.0767      17.333785      27701.818      10112.159
Averages over the last 501 of 1001 rows, steps 50000 to 100000:
Temp TotEng PotEng KinEng Press Volume
300.262 -3239.87 -3257.22 17.3489 8956.07 10112.2
Loop time of 755.985 on 20 procs for 100000 steps with 448 atoms
